
#======================================================================
# CRYSTAL DATA
#----------------------------------------------------------------------
data_VESTA_phase_1

_chemical_name_common                  'Li3 Ni3 O6'
_cell_length_a                         5.085235
_cell_length_b                         5.085235
_cell_length_c                         5.085235
_cell_angle_alpha                      33.197186
_cell_angle_beta                       33.197186
_cell_angle_gamma                      33.197186
_cell_volume                           35.093229
_space_group_name_H-M_alt              'R -3 m'
_space_group_IT_number                 166

loop_
_space_group_symop_operation_xyz
   'x, y, z'
   '-x, -y, -z'
   'z, x, y'
   '-z, -x, -y'
   'y, z, x'
   '-y, -z, -x'
   '-y, -x, -z'
   'y, x, z'
   '-x, -z, -y'
   'x, z, y'
   '-z, -y, -x'
   'z, y, x'

loop_
   _atom_site_label
   _atom_site_occupancy
   _atom_site_fract_x
   _atom_site_fract_y
   _atom_site_fract_z
   _atom_site_adp_type
   _atom_site_U_iso_or_equiv
   _atom_site_type_symbol
   Li0        1.0     0.500000     0.500000     0.500000    Uiso  ? Li
   Ni1        1.0     0.000000     0.000000     0.000000    Uiso  ? Ni
   O2         1.0     0.257756     0.257756     0.257756    Uiso  ? O
