
#======================================================================
# CRYSTAL DATA
#----------------------------------------------------------------------
data_VESTA_phase_1

_chemical_name_common                  ''
_cell_length_a                         5.472441
_cell_length_b                         5.472441
_cell_length_c                         5.472441
_cell_angle_alpha                      55.189007
_cell_angle_beta                       55.189007
_cell_angle_gamma                      55.189007
_cell_volume                           102.923501
_space_group_name_H-M_alt              'R -3 c'
_space_group_IT_number                 167

loop_
_space_group_symop_operation_xyz
   'x, y, z'
   '-x, -y, -z'
   'z, x, y'
   '-z, -x, -y'
   'y, z, x'
   '-y, -z, -x'
   '-y+1/2, -x+1/2, -z+1/2'
   'y+1/2, x+1/2, z+1/2'
   '-x+1/2, -z+1/2, -y+1/2'
   'x+1/2, z+1/2, y+1/2'
   '-z+1/2, -y+1/2, -x+1/2'
   'z+1/2, y+1/2, x+1/2'

loop_
   _atom_site_label
   _atom_site_occupancy
   _atom_site_fract_x
   _atom_site_fract_y
   _atom_site_fract_z
   _atom_site_adp_type
   _atom_site_B_iso_or_equiv
   _atom_site_type_symbol
   Cr0        1.0     0.151852     0.151852     0.151852    Biso  1.000000 Cr
   O1         1.0     0.250000     0.553800    -0.053800    Biso  1.000000 O
